AMOSTRA/TUM/Vaos.dss
! ==========================================================
! VAOS DE SAIDA — barra de MT da SE -> cabeceira do alimentador
! Derivado de CTMT.BARR e CTMT.UNI_TR_AT: a BDGD nao modela o
! arranjo interno da subestacao, so o vinculo logico.
! Cada vao e o disjuntor de saida do alimentador.
! ==========================================================
New Line.VAO_TUMTM-06 phases=3 Bus1=tum01b1.1.2.3 Bus2=21682-11546158.1.2.3 Switch=y r1=0.0001 r0=0.0001 x1=0 x0=0 c1=0 c0=0
New Monitor.M_TUMTM-06 element=Line.VAO_TUMTM-06 terminal=1 mode=1 ppolar=no
New Line.VAO_TUMTM-01 phases=3 Bus1=tum01b1.1.2.3 Bus2=12786-8075839.1.2.3 Switch=y r1=0.0001 r0=0.0001 x1=0 x0=0 c1=0 c0=0
New Monitor.M_TUMTM-01 element=Line.VAO_TUMTM-01 terminal=1 mode=1 ppolar=no
New Line.VAO_TUMTM-02 phases=3 Bus1=tum01b1.1.2.3 Bus2=12779-8042235.1.2.3 Switch=y r1=0.0001 r0=0.0001 x1=0 x0=0 c1=0 c0=0
New Monitor.M_TUMTM-02 element=Line.VAO_TUMTM-02 terminal=1 mode=1 ppolar=no
New Line.VAO_TUMTM-03 phases=3 Bus1=tum01b1.1.2.3 Bus2=16307-11088341.1.2.3 Switch=y r1=0.0001 r0=0.0001 x1=0 x0=0 c1=0 c0=0
New Monitor.M_TUMTM-03 element=Line.VAO_TUMTM-03 terminal=1 mode=1 ppolar=no
New Line.VAO_TUMTM-04 phases=3 Bus1=tum01b1.1.2.3 Bus2=18422-11324179.1.2.3 Switch=y r1=0.0001 r0=0.0001 x1=0 x0=0 c1=0 c0=0
New Monitor.M_TUMTM-04 element=Line.VAO_TUMTM-04 terminal=1 mode=1 ppolar=no
New Line.VAO_TUMTM-05 phases=3 Bus1=tum01b1_34p5kv.1.2.3 Bus2=16342-11114436.1.2.3 Switch=y r1=0.0001 r0=0.0001 x1=0 x0=0 c1=0 c0=0
New Monitor.M_TUMTM-05 element=Line.VAO_TUMTM-05 terminal=1 mode=1 ppolar=no
New Line.VAO_TUMTM-08 phases=3 Bus1=tum01b1_34p5kv.1.2.3 Bus2=25203-11546169.1.2.3 Switch=y r1=0.0001 r0=0.0001 x1=0 x0=0 c1=0 c0=0
New Monitor.M_TUMTM-08 element=Line.VAO_TUMTM-08 terminal=1 mode=1 ppolar=no
